McPAT (version 1.3 of Feb, 2015) is computing the target processor...
 

McPAT (version 1.3 of Feb, 2015) results (current print level is 2, please increase print level to see the details in components): 
*****************************************************************************************
  Technology 22 nm
  Using Long Channel Devices When Appropriate
  Interconnect metal projection= conservative interconnect technology projection
  Core clock Rate(MHz) 2000

*****************************************************************************************
Processor: 
  Area = 5.17952 mm^2
  Peak Power = 2.07446 W
  Total Leakage = 0.195373 W
  Peak Dynamic = 1.87908 W
  Subthreshold Leakage = 0.192526 W
  Gate Leakage = 0.00284727 W
  Runtime Dynamic = 1.46598 W

  Total Cores: 4 cores 
  Device Type= ITRS low operating power device type
    Area = 3.0856 mm^2
    Peak Dynamic = 1.35507 W
    Subthreshold Leakage = 0.140428 W
    Gate Leakage = 0.00244216 W
    Runtime Dynamic = 0.4627 W

  Total L2s: 
  Device Type= ITRS high performance device type
    Area = 1.92007 mm^2
    Peak Dynamic = 0.494196 W
    Subthreshold Leakage = 0.0454424 W
    Gate Leakage = 0.000193912 W
    Runtime Dynamic = 0.26158 W

  Total First Level Directory: 
  Device Type= ITRS low operating power device type
    Area = 0.165795 mm^2
    Peak Dynamic = 0.0168809 W
    Subthreshold Leakage = 0.00608274 W
    Gate Leakage = 0.000196381 W
    Runtime Dynamic = 0.677008 W

  Total NoCs (Network/Bus): 
  Device Type= ITRS low operating power device type
    Area = 0.00805422 mm^2
    Peak Dynamic = 0.0129387 W
    Subthreshold Leakage = 0.000573064 W
    Gate Leakage = 1.48192e-05 W
    Runtime Dynamic = 0.0646935 W

*****************************************************************************************
Core:
      Area = 0.7714 mm^2
      Peak Dynamic = 0.338767 W
      Subthreshold Leakage = 0.0351069 W
      Gate Leakage = 0.00061054 W
      Runtime Dynamic = 0.4627 W

      Instruction Fetch Unit:
        Area = 0.145679 mm^2
        Peak Dynamic = 0.135354 W
        Subthreshold Leakage = 0.0077559 W
        Gate Leakage = 9.25814e-05 W
        Runtime Dynamic = 0.128323 W

      Renaming Unit:
        Area = 0.00454051 mm^2
        Peak Dynamic = 0.00884825 W
        Subthreshold Leakage = 9.98341e-05 W
        Gate Leakage = 3.17658e-06 W
        Runtime Dynamic = 0.0171828 W

      Load Store Unit:
        Area = 0.0880662 mm^2
        Peak Dynamic = 0.0317926 W
        Subthreshold Leakage = 0.00541108 W
        Gate Leakage = 7.476e-05 W
        Runtime Dynamic = 0.0951147 W

      Memory Management Unit:
        Area = 0.0072435 mm^2
        Peak Dynamic = 0.00494729 W
        Subthreshold Leakage = 0.000395894 W
        Runtime Dynamic = 0.0186323 W

      Execution Unit:
        Area = 0.492709 mm^2
        Peak Dynamic = 0.157825 W
        Subthreshold Leakage = 0.0198864 W
        Runtime Dynamic = 0.203447 W

*****************************************************************************************
L2
      Area = 1.92007 mm^2
      Peak Dynamic = 0.494196 W
      Subthreshold Leakage = 0.0454424 W
      Gate Leakage = 0.000193912 W
      Runtime Dynamic = 0.26158 W

*****************************************************************************************
First Level Directory
      Area = 0.0828977 mm^2
      Peak Dynamic = 0.00844044 W
      Subthreshold Leakage = 0.00304137 W
      Gate Leakage = 9.81906e-05 W
      Runtime Dynamic = 0.677008 W

*****************************************************************************************
BUSES
      Area = 0.00805422 mm^2
      Peak Dynamic = 0.0129387 W
      Subthreshold Leakage = 0.000573064 W
      Gate Leakage = 1.48192e-05 W
      Runtime Dynamic = 0.0646935 W

      Bus: 
        Area = 0.00805422 mm^2
        Peak Dynamic = 0.0129387 W
        Subthreshold Leakage = 0.000573064 W
        Gate Leakage = 1.48192e-05 W
        Runtime Dynamic = 0.0646935 W

*****************************************************************************************
